Version 4
SHEET 1 1240 680
WIRE 256 -128 32 -128
WIRE 528 -128 256 -128
WIRE 832 -128 528 -128
WIRE 880 -128 832 -128
WIRE 992 -128 880 -128
WIRE 528 -112 528 -128
WIRE 992 -112 992 -128
WIRE 256 -64 256 -128
WIRE 880 -64 880 -128
WIRE 992 -16 992 -32
WIRE 992 -16 944 -16
WIRE 32 0 32 -128
WIRE 528 32 528 -32
WIRE 720 32 528 32
WIRE 992 32 992 -16
WIRE 256 80 256 16
WIRE 352 80 256 80
WIRE 880 80 880 32
WIRE 880 80 784 80
WIRE 928 80 880 80
WIRE 832 112 832 -128
WIRE 256 128 256 80
WIRE 528 128 528 32
WIRE 992 160 992 128
WIRE 992 160 896 160
WIRE 352 176 352 80
WIRE 352 176 320 176
WIRE 464 176 352 176
WIRE 720 176 720 128
WIRE 992 176 992 160
WIRE 832 224 832 208
WIRE 832 224 784 224
WIRE 928 224 832 224
WIRE 32 304 32 80
WIRE 256 304 256 224
WIRE 256 304 32 304
WIRE 528 304 528 224
WIRE 528 304 256 304
WIRE 720 304 720 272
WIRE 720 304 528 304
WIRE 992 304 992 272
WIRE 992 304 720 304
WIRE 32 336 32 304
FLAG 32 336 0
SYMBOL current 256 -64 R0
WINDOW 123 0 0 Left 0
WINDOW 39 0 0 Left 0
SYMATTR InstName I1
SYMATTR Value 1m
SYMBOL npn 320 128 M0
WINDOW 0 76 24 Left 2
SYMATTR InstName Q1
SYMATTR Value 2N2222
SYMBOL npn 464 128 R0
SYMATTR InstName Q2
SYMATTR Value 2N2222
SYMBOL voltage 32 -16 R0
WINDOW 123 0 0 Left 0
WINDOW 39 0 0 Left 0
SYMATTR InstName V1
SYMATTR Value 10
SYMBOL voltage 528 -128 R0
WINDOW 123 0 0 Left 0
WINDOW 39 0 0 Left 0
SYMATTR InstName V2
SYMATTR Value 5
SYMBOL current 992 -112 R0
WINDOW 123 0 0 Left 0
WINDOW 39 0 0 Left 0
SYMATTR InstName I2
SYMATTR Value 1m
SYMBOL npn 784 176 M0
WINDOW 0 76 24 Left 2
SYMATTR InstName Q4
SYMATTR Value 2N2222
SYMBOL npn 928 176 R0
SYMATTR InstName Q3
SYMATTR Value 2N2222
SYMBOL npn 784 32 M0
WINDOW 0 76 24 Left 2
SYMATTR InstName Q5
SYMATTR Value 2N2222
SYMBOL npn 928 32 R0
SYMATTR InstName Q6
SYMATTR Value 2N2222
SYMBOL npn 944 -64 M0
WINDOW 0 76 24 Left 2
SYMATTR InstName Q7
SYMATTR Value 2N2222
SYMBOL npn 896 112 M0
WINDOW 0 76 24 Left 2
SYMATTR InstName Q8
SYMATTR Value 2N2222
TEXT -2 360 Left 2 !.dc V2 0 10 0.01
