Version 4
SHEET 1 1240 680
WIRE 256 -128 32 -128
WIRE 448 -128 256 -128
WIRE 256 -64 256 -128
WIRE 448 -16 448 -128
WIRE 32 0 32 -128
WIRE 256 112 256 16
WIRE 336 112 256 112
WIRE 256 128 256 112
WIRE 448 128 448 64
WIRE 336 176 336 112
WIRE 336 176 320 176
WIRE 384 176 336 176
WIRE 32 304 32 80
WIRE 256 304 256 224
WIRE 256 304 32 304
WIRE 448 304 256 304
WIRE 32 336 32 304
FLAG 32 336 0
SYMBOL current 256 -64 R0
WINDOW 123 0 0 Left 0
WINDOW 39 0 0 Left 0
SYMATTR InstName I1
SYMATTR Value 1m
SYMBOL npn 320 128 M0
WINDOW 0 76 24 Left 2
SYMATTR InstName Q1
SYMATTR Value 2N2222
SYMBOL npn 384 128 R0
SYMATTR InstName Q2
SYMATTR Value 2N2222
SYMBOL voltage 32 -16 R0
WINDOW 123 0 0 Left 0
WINDOW 39 0 0 Left 0
SYMATTR InstName V1
SYMATTR Value 10
SYMBOL voltage 448 -32 R0
WINDOW 123 0 0 Left 0
WINDOW 39 0 0 Left 0
SYMATTR InstName V2
SYMATTR Value 5
SYMBOL res 432 208 R0
SYMATTR InstName R1
SYMATTR Value 212
TEXT -2 360 Left 2 !.ac lin 10 1m 100meg
